LAMMPS (7 Feb 2024 - Update 1)
# LAMMPS input file. Automaticly created by pyLAMMPS

# Define general settings

units real
dimension 3
boundary p p p
atom_style full

# Define bond, angle, and dihedral style

bond_style    harmonic
angle_style    harmonic
dihedral_style    opls

read_data   ../../build/system.data
Reading data file ...
  orthogonal box = (-29.671868 -29.671868 -29.671868) to (29.671868 29.671868 29.671868)
  reading atoms ...
  5000 atoms
  scanning bonds ...
  scanning angles ...
  scanning dihedrals ...
  reading bonds ...
  4000 bonds
  reading angles ...
  3000 angles
  reading dihedrals ...
  2000 dihedrals
Finding 1-2 1-3 1-4 neighbors ...
     2 = max # of 1-2 neighbors
     2 = max # of 1-3 neighbors
     3 = max # of 1-4 neighbors
     5 = max # of special neighbors

# Include force field paramters

include   ../../../force_field.params
## LAMMPS force field file. Automaticly created by pyLAMMPS

# Pair style
pair_style mie/cut 12
pair_modify mix geometric tail yes

# Van der Waals interactions

pair_coeff  1 1 0.2709 3.6034 14.0 6.0 # CH3_alkane  CH3_alkane
pair_coeff  1 2 0.1687 3.8155 14.0 6.0 # CH3_alkane  CH2_alkane
pair_coeff  1 3 0.2709 3.6034 14.0 6.0 # CH3_alkane  CH3_alkane
pair_coeff  1 4 0.1687 3.8155 14.0 6.0 # CH3_alkane  CH2_alkane
pair_coeff  2 2 0.1051 4.04 14.0 6.0 # CH2_alkane  CH2_alkane
pair_coeff  2 3 0.1687 3.8155 14.0 6.0 # CH2_alkane  CH3_alkane
pair_coeff  2 4 0.1051 4.04 14.0 6.0 # CH2_alkane  CH2_alkane
pair_coeff  3 3 0.2709 3.6034 14.0 6.0 # CH3_alkane  CH3_alkane
pair_coeff  3 4 0.1687 3.8155 14.0 6.0 # CH3_alkane  CH2_alkane
pair_coeff  4 4 0.1051 4.04 14.0 6.0 # CH2_alkane  CH2_alkane

# Bonded interactions

bond_coeff  1 200.0 1.74 # CH3_alkane CH2_alkane
bond_coeff  2 200.0 1.54 # CH2_alkane CH2_alkane
bond_coeff  3 200.0 1.74 # CH3_alkane CH2_alkane
bond_coeff  4 200.0 1.54 # CH2_alkane CH2_alkane

# Angle interactions

angle_coeff  1 62.1001 114.0 # CH2_alkane CH2_alkane CH3_alkane
angle_coeff  2 62.1001 114.0 # CH2_alkane CH2_alkane CH3_alkane
angle_coeff  3 62.1001 114.0 # CH2_alkane CH2_alkane CH2_alkane

# Dihedral interactions

dihedral_coeff  1 1.411 -0.271 3.145 0.0 # CH3_alkane CH2_alkane CH2_alkane CH3_alkane
dihedral_coeff  2 1.411 -0.271 3.145 0.0 # CH2_alkane CH2_alkane CH2_alkane CH3_alkane
dihedral_coeff  3 1.411 -0.271 3.145 0.0 # CH2_alkane CH2_alkane CH2_alkane CH2_alkane

# Define the neighbor list settings

neighbor 2.0 bin
neigh_modify every 1 delay 0 check yes

# Define special bonds to scale 1-2, 1-3, or 1-4 vdW / Coulomb pair interactions

special_bonds lj 0 0 0  coul 0 0 0

# ============= INITIAL SYSTEM SETUP AND EQUILIBRATION =============

# ------------- general ---------------

variable  project             index       em
variable  timestep            equal       1
variable  run_time            equal       0

timestep  1

# ------------- set integration settings ---------------

variable temperature  equal 343.15

variable seed  equal 90624

# ------------- generate velocities ---------------

velocity        all create 343.15 90624 rot yes dist gaussian

# ------------- time integration ---------------

thermo   10
min_style   cg
minimize   1e-10 1e-10 10000 10000
Generated 0 of 6 mixed pair_coeff terms from geometric mixing rule
Step          Temp          E_pair         E_mol          TotEng         Press
0   343.15        -6343.8357      19733.134      18502.6        29019.078
Averages over the last 222 of 444 rows, steps 2220 to 4430:
Temp E_pair E_mol TotEng Press
343.15 -8062.95 38.1676 -2911.48 634.389
Loop time of 39.2194 on 28 procs for 4430 steps with 5000 atoms

Minimization stats:
  Stopping criterion = linesearch alpha is zero
  Energy initial, next-to-last, final =
  Force two-norm initial, final = 5304.3313 1.5258266
  Force max component initial, final = 88.217271 0.21202747
  Final line search alpha, max atom move = 3.6300874e-09 7.6967827e-10
  Iterations, force evaluations = 4430 8892

# ============= VARIABLES ===============

# ------------- output ---------------

variable  sample_frequency    equal       10
variable  sample_number       equal       100
variable  to_file_every       equal       $(v_sample_frequency*v_sample_number)
variable  to_file_every       equal       1000
variable  to_screen_every     equal       $(v_to_file_every*10)
variable  to_screen_every     equal       10000

# ------------- values ---------------

variable step equal step

# ============= SAMPLING CONDITIONS =============

thermo          10000
thermo_style    custom step temp press pe ke etotal enthalpy vol density

# Sample: energy

# Define sample variables

variable potential_energy  equal pe
variable kinetic_energy  equal ke
variable enthalpy  equal enthalpy

fix ene all ave/time 10 100 1000  c_thermo_temp v_potential_energy v_kinetic_energy v_enthalpy  title2 '# step (fs), temperature (K), potential energy (kcal/mol), kinetic energy (kcal/mol), enthalpy (kcal/mol)'  file em.energy

# Sample: density

# Define sample variables

variable density  equal density

fix density all ave/time 10 100 1000  c_thermo_temp v_density    title2 '# step (fs), temperature (K), density (g/cm^3)'  file em.density

# ============= RUN CONDITIONS =============

run             0
Generated 0 of 6 mixed pair_coeff terms from geometric mixing rule
Step          Temp          Press          PotEng         KinEng         TotEng        Enthalpy        Volume        Density
4430   343.15         645.90921     -8058.8692      5113.302      -2945.5672     -976.90128      208989.59      0.57327995
Loop time of 5.61757e-05 on 28 procs for 0 steps with 5000 atoms

# Write restart after successful simulation

write_restart em.restart
System init for write_restart ...
Generated 0 of 6 mixed pair_coeff terms from geometric mixing rule
