LAMMPS (7 Feb 2024 - Update 1)
# LAMMPS input file. Automaticly created by pyLAMMPS

# Define general settings

units real
dimension 3
boundary p p p
atom_style full

# Define bond, angle, and dihedral style

bond_style    harmonic
angle_style    harmonic
dihedral_style    opls

read_restart   ../00_em/em.restart
Reading restart file ...
  restart file = 7 Feb 2024, LAMMPS = 7 Feb 2024
  restoring atom style full from restart
  orthogonal box = (-29.671868 -29.671868 -29.671868) to (29.671868 29.671868 29.671868)
  restoring pair style mie/cut from restart
  restoring bond style harmonic from restart
  restoring angle style harmonic from restart
  restoring dihedral style opls from restart
  5000 atoms
  4000 bonds
  3000 angles
  2000 dihedrals
Finding 1-2 1-3 1-4 neighbors ...
     2 = max # of 1-2 neighbors
     2 = max # of 1-3 neighbors
     3 = max # of 1-4 neighbors
     5 = max # of special neighbors
  read_restart CPU = 0.017 seconds

# Define bond, angle, and dihedral style again after reading restart. Necessary in case hybrid styles were used

bond_style    harmonic
angle_style    harmonic
dihedral_style    opls

# Include force field paramters

include   ../../../force_field.params
## LAMMPS force field file. Automaticly created by pyLAMMPS

# Pair style
pair_style mie/cut 12
pair_modify mix geometric tail yes

# Van der Waals interactions

pair_coeff  1 1 0.2709 3.6034 14.0 6.0 # CH3_alkane  CH3_alkane
pair_coeff  1 2 0.1687 3.8155 14.0 6.0 # CH3_alkane  CH2_alkane
pair_coeff  1 3 0.2709 3.6034 14.0 6.0 # CH3_alkane  CH3_alkane
pair_coeff  1 4 0.1687 3.8155 14.0 6.0 # CH3_alkane  CH2_alkane
pair_coeff  2 2 0.1051 4.04 14.0 6.0 # CH2_alkane  CH2_alkane
pair_coeff  2 3 0.1687 3.8155 14.0 6.0 # CH2_alkane  CH3_alkane
pair_coeff  2 4 0.1051 4.04 14.0 6.0 # CH2_alkane  CH2_alkane
pair_coeff  3 3 0.2709 3.6034 14.0 6.0 # CH3_alkane  CH3_alkane
pair_coeff  3 4 0.1687 3.8155 14.0 6.0 # CH3_alkane  CH2_alkane
pair_coeff  4 4 0.1051 4.04 14.0 6.0 # CH2_alkane  CH2_alkane

# Bonded interactions

bond_coeff  1 200.0 1.74 # CH3_alkane CH2_alkane
bond_coeff  2 200.0 1.54 # CH2_alkane CH2_alkane
bond_coeff  3 200.0 1.74 # CH3_alkane CH2_alkane
bond_coeff  4 200.0 1.54 # CH2_alkane CH2_alkane

# Angle interactions

angle_coeff  1 62.1001 114.0 # CH2_alkane CH2_alkane CH3_alkane
angle_coeff  2 62.1001 114.0 # CH2_alkane CH2_alkane CH3_alkane
angle_coeff  3 62.1001 114.0 # CH2_alkane CH2_alkane CH2_alkane

# Dihedral interactions

dihedral_coeff  1 1.411 -0.271 3.145 0.0 # CH3_alkane CH2_alkane CH2_alkane CH3_alkane
dihedral_coeff  2 1.411 -0.271 3.145 0.0 # CH2_alkane CH2_alkane CH2_alkane CH3_alkane
dihedral_coeff  3 1.411 -0.271 3.145 0.0 # CH2_alkane CH2_alkane CH2_alkane CH2_alkane

# Define the neighbor list settings

neighbor 2.0 bin
neigh_modify every 1 delay 0 check yes

# Define special bonds to scale 1-2, 1-3, or 1-4 vdW / Coulomb pair interactions

special_bonds lj 0 0 0  coul 0 0 0

# ============= INITIAL SYSTEM SETUP AND EQUILIBRATION =============

# ------------- general ---------------

variable  project             index       npt
variable  timestep            equal       1
variable  run_time            equal       100000

timestep  1

# ------------- set integration settings ---------------

variable temperature  equal 343.15
variable pressure  equal 4.255

# ------------- time integration ---------------

fix int_npt all npt temp 343.15 343.15 100 iso 4.255 4.255 $(1000.0*v_timestep)
fix int_npt all npt temp 343.15 343.15 100 iso 4.255 4.255 1000

# ============= VARIABLES ===============

# ------------- output ---------------

variable  sample_frequency    equal       10
variable  sample_number       equal       100
variable  to_file_every       equal       $(v_sample_frequency*v_sample_number)
variable  to_file_every       equal       1000
variable  to_screen_every     equal       $(v_to_file_every*10)
variable  to_screen_every     equal       10000

# ------------- values ---------------

variable step equal step

# ============= SAMPLING CONDITIONS =============

thermo          10000
thermo_style    custom step temp press pe ke etotal enthalpy vol density

# Sample: energy

# Define sample variables

variable potential_energy  equal pe
variable kinetic_energy  equal ke
variable enthalpy  equal enthalpy

fix ene all ave/time 10 100 1000  c_thermo_temp v_potential_energy v_kinetic_energy v_enthalpy  title2 '# step (fs), temperature (K), potential energy (kcal/mol), kinetic energy (kcal/mol), enthalpy (kcal/mol)'  file npt.energy

# Sample: density

# Define sample variables

variable density  equal density

fix density all ave/time 10 100 1000  c_thermo_temp v_density    title2 '# step (fs), temperature (K), density (g/cm^3)'  file npt.density

# ============= RUN CONDITIONS =============

run             100000
Generated 0 of 6 mixed pair_coeff terms from geometric mixing rule
Step          Temp          Press          PotEng         KinEng         TotEng        Enthalpy        Volume        Density
4430   343.15         645.90921     -8058.8692      5113.302      -2945.5672     -976.90128      208989.59      0.57327995
Averages over the last 6 of 12 rows, steps 60000 to 104430:
Temp Press PotEng KinEng TotEng Enthalpy Volume Density
342.598 71.8841 -1597.12 5105.08 3507.95 3727.01 209638 0.571565
Loop time of 305.519 on 28 procs for 100000 steps with 5000 atoms

# Write restart after successful simulation

write_restart npt.restart
System init for write_restart ...
Generated 0 of 6 mixed pair_coeff terms from geometric mixing rule
